<?xml version="1.0" encoding="UTF-8"?>

<mule xmlns:ee="http://www.mulesoft.org/schema/mule/ee/core" xmlns:http="http://www.mulesoft.org/schema/mule/http"
	xmlns="http://www.mulesoft.org/schema/mule/core"
	xmlns:doc="http://www.mulesoft.org/schema/mule/documentation" xmlns:xsi="http://www.w3.org/2001/XMLSchema-instance" xsi:schemaLocation="http://www.mulesoft.org/schema/mule/core http://www.mulesoft.org/schema/mule/core/current/mule.xsd
http://www.mulesoft.org/schema/mule/http http://www.mulesoft.org/schema/mule/http/current/mule-http.xsd
http://www.mulesoft.org/schema/mule/ee/core http://www.mulesoft.org/schema/mule/ee/core/current/mule-ee.xsd">
	<http:request-config name="HTTP_Request_configuration" doc:name="HTTP Request configuration" doc:id="06d7a756-3f90-4b78-94fe-1a26fb748e47" >
		<http:request-connection protocol="HTTPS" host="kp-apiv2-auth.azurewebsites.net" />
	</http:request-config>
	<flow name="main_flowFlow" doc:id="043e146d-fd1f-4b68-a852-85e08099c495" >
		<set-variable value="#[output application/json
---
[] as Array]" doc:name="acc init" doc:id="22001d83-fb9c-4596-ac29-088ce1893ed1" variableName="acc"/>
		<foreach doc:name="For Each" doc:id="8591b50e-125e-43e3-befd-cbae01d84866" collection="#[message.payload]">
			<set-variable value="#[payload.quantity]" doc:name="quantity variable" doc:id="b60958bf-aee5-45a8-94c8-602de394afba" variableName="quantity" />
			<logger level="INFO" doc:name="Logger" doc:id="60e03374-736f-4952-9e50-43edd3e0b348" message="#[vars.quantity]" />
			<http:request method="GET" doc:name="Request" doc:id="c25f1019-aaec-426f-8aef-f343fa26a185" config-ref="HTTP_Request_configuration" path="#['/api/v2/products/' ++ (payload.productId)]">
		</http:request>
			<ee:transform doc:name="transform response from HTTP" doc:id="7a32a1b7-551a-46d7-aafc-531669702179" >
				<ee:message >
					<ee:set-payload resource="mapping_forEach.dwl" />
				</ee:message>
			</ee:transform>
			<set-variable value="#[output application/json
---
vars.acc &lt;&lt; payload]" doc:name="override acc" doc:id="6795764f-66e5-41f7-82a8-5e030fce59d3" variableName="acc" />
			<logger level="INFO" doc:name="Logger" doc:id="84a93046-b727-459c-98cc-05d023903890" message="#[vars.rootMessage.payload[vars.counter - 1]]" />
		</foreach>
		<ee:transform doc:name="transform final output" doc:id="4485a235-2267-427c-b5fa-ba525ae8e0b3" >
			<ee:message >
				<ee:set-payload resource="mapping_flow.dwl" />
			</ee:message>
		</ee:transform>
		<error-handler >
			<on-error-propagate enableNotifications="true" logException="true" doc:name="On Error Propagate" doc:id="108b946d-5a31-4d2c-9c3c-cb1d1e82b0dc" type="HTTP:NOT_FOUND">
				<logger level="INFO" doc:name="Logger" doc:id="ecaf6699-0684-436c-a745-3c3098835516" message="#['Resource not found.' ++ (error.description default '')]"/>
			</on-error-propagate>
		</error-handler>
	</flow>
</mule>
